outputs/tables/comparison_results/bus_voltages.csv
Bus,Newton-Raphson_Vmag,Newton-Raphson_Vang,Gauss-Seidel_Vmag,Gauss-Seidel_Vang,Fast Decoupled_Vmag,Fast Decoupled_Vang
1,1.04,0.0,1.04,0.0,1.04,0.0
2,1.0250000000000001,9.280007844331584,1.025,9.215485404471716,1.0249999999999984,84.86028538145135
3,1.025,4.6647533665773135,1.025,4.6053676349142565,1.0250000000000004,-55.85721113569696
4,1.0257884099373211,-2.2167874762658797,1.025843703159219,-2.23733580031446,5.1261982378870077e+64,-114.34918073521634
5,0.9956308922495553,-3.9888044417935347,0.9957086067295191,-4.02370211821938,6.776448071166664e+64,23.34001539334585
6,1.0126543462410733,-3.68739548919959,1.0127131727134857,-3.7211979231748105,5.760980480027477e+64,156.92854916110232
7,1.0257693965911665,3.71970355391134,1.025790098864245,3.6602287037171424,3.297607421508131e+64,155.40082053086104
8,1.0158826062268091,0.7275379733749937,1.0158965658233763,0.6682661288538668,3.591428603242536e+64,153.42366455299165
9,1.032352962848402,1.9667181112643317,1.03236353008322,1.9118571178462034,2.5868836068935484e+64,-126.3337426327718
